LTspice 24.0.9 for Windows
Circuit: * C:\workspace\SolderOtto\simulations\JBC Soldering Station Simulations\Draft1.asc
Start Time: Fri Mar 15 15:43:55 2024
solver = Normal
Maximum thread count: 32
tnom = 27
temp = 27
method = modified trap
Direct Newton iteration for .op point succeeded.
Total elapsed time: 0.043 seconds.

