Missing ".ends" statement in file "C:\workspace\SolderOtto\simulations\VOM1271T.txt"
LTspice 24.0.9 for Windows
Circuit: * C:\workspace\SolderOtto\simulations\output.asc
Start Time: Sat Mar 16 10:35:25 2024
solver = Normal
Maximum thread count: 32
tnom = 27
temp = 27
method = modified trap
WARNING: Node N002 is floating.

WARNING: Less than two connections to node n002.  This node is used by c1.
WARNING: Less than two connections to node u2:u1:ua:test.  This node is used by e:u2:u1:ua:test.
WARNING: Less than two connections to node u2:u1:ua:vth_diff.  This node is used by e:u2:u1:ua:vthdiff.
WARNING: Less than two connections to node u2:u1:ub:test.  This node is used by e:u2:u1:ub:test.
WARNING: Less than two connections to node u2:u1:ub:vth_diff.  This node is used by e:u2:u1:ub:vthdiff.
WARNING: Less than two connections to node u2:u1:uoez:test.  This node is used by e:u2:u1:uoez:test.
WARNING: Less than two connections to node u2:u1:uoez:vth_diff.  This node is used by e:u2:u1:uoez:vthdiff.
Direct Newton iteration for .op point succeeded.
Ignoring empty pin current: Ix(u1:a)
Ignoring empty pin current: Ix(u1:k)
Ignoring empty pin current: Ix(u1:+iout)
Ignoring empty pin current: Ix(u2:iin)
Ignoring empty pin current: Ix(u2:iout)
Ignoring empty pin current: Ix(u2:nc2)
Ignoring empty pin current: Ix(u2:nc1)
Ignoring empty pin current: Ix(u1:a)
Ignoring empty pin current: Ix(u1:k)
Ignoring empty pin current: Ix(u1:+iout)
Ignoring empty pin current: Ix(u2:iin)
Ignoring empty pin current: Ix(u2:iout)
Ignoring empty pin current: Ix(u2:nc2)
Ignoring empty pin current: Ix(u2:nc1)
Total elapsed time: 0.136 seconds.

