LTspice 24.0.11 for Windows
Circuit: * Z:\home\arghfu\workspace\SolderOtto\simulations\JBC Soldering Station Simulations\AC MOSFET Driver.asc
Start Time: Sun Apr 14 17:41:39 2024
Warning: Multiple definitions of model "2scr375p" Type: BJT
Warning: Multiple definitions of model "bc857b" Type: BJT
Warning: Multiple definitions of model "bc847c" Type: BJT
Warning: Multiple definitions of model "bc847b" Type: BJT
solver = Normal
Maximum thread count: 32
tnom = 27
temp = 27
method = modified trap
Per .tran options, skipping operating point for transient analysis.
Changing Tseed to 6.83594e-09
Changing Tseed to 6.83594e-11
Changing Tseed to 6.83594e-08
Changing Tseed to 6.83594e-12
Changing Tseed to 6.83594e-07
Changing Tseed to 6.83594e-13
Changing Tseed to 6.83594e-06
Changing Tseed to 6.83594e-14
Changing Tseed to 6.83594e-05
Changing Tseed to 6.83594e-15
Changing Tseed to 0.000683594
Changing Tseed to 6.83594e-16
Heightened Def Con from 0 Changing Tseed to 1e-09
Changing Tseed to 1e-11
Changing Tseed to 1e-08
Changing Tseed to 1e-12
Changing Tseed to 1e-07
Changing Tseed to 1e-13
Changing Tseed to 1e-06
Changing Tseed to 1e-14
Changing Tseed to 1e-05
Changing Tseed to 1e-15
Changing Tseed to 0.0001
Changing Tseed to 1e-16
+Changing Tseed to 1e-09
Changing Tseed to 1e-11
Changing Tseed to 1e-08
Changing Tseed to 1e-12
Changing Tseed to 1e-07
Changing Tseed to 1e-13
Changing Tseed to 1e-06
Changing Tseed to 1e-14
Changing Tseed to 1e-05
Changing Tseed to 1e-15
Changing Tseed to 0.0001
Changing Tseed to 1e-16
+Changing Tseed to 1e-09
Changing Tseed to 1e-11
Changing Tseed to 1e-08
Changing Tseed to 1e-12
Changing Tseed to 1e-07
Changing Tseed to 1e-13
Changing Tseed to 1e-06
Changing Tseed to 1e-14
Changing Tseed to 1e-05
Changing Tseed to 1e-15
Changing Tseed to 0.0001
Changing Tseed to 1e-16
+Changing Tseed to 1e-09
Changing Tseed to 1e-11
Changing Tseed to 1e-08
Changing Tseed to 1e-12
Changing Tseed to 1e-07
Changing Tseed to 1e-13
Changing Tseed to 1e-06
Changing Tseed to 1e-14
Changing Tseed to 1e-05
Changing Tseed to 1e-15
Changing Tseed to 0.0001
Changing Tseed to 1e-16
+Changing Tseed to 1e-09
Changing Tseed to 1e-11
Changing Tseed to 1e-08
Changing Tseed to 1e-12
Changing Tseed to 1e-07
Changing Tseed to 1e-13
Changing Tseed to 1e-06
Changing Tseed to 1e-14
Changing Tseed to 1e-05
Changing Tseed to 1e-15
Changing Tseed to 0.0001
Changing Tseed to 1e-16
+Changing Tseed to 1e-09
Changing Tseed to 1e-11
Changing Tseed to 1e-08
Changing Tseed to 1e-12
Changing Tseed to 1e-07
Changing Tseed to 1e-13
Changing Tseed to 1e-06
Changing Tseed to 1e-14
Changing Tseed to 1e-05
Changing Tseed to 1e-15
Changing Tseed to 0.0001
Changing Tseed to 1e-16
+Changing Tseed to 1e-09
Changing Tseed to 1e-11
Changing Tseed to 1e-08
Changing Tseed to 1e-12
Changing Tseed to 1e-07
Changing Tseed to 1e-13
Changing Tseed to 1e-06
Changing Tseed to 1e-14
Changing Tseed to 1e-05
Changing Tseed to 1e-15
Changing Tseed to 0.0001
Changing Tseed to 1e-16
+Changing Tseed to 1e-09
Changing Tseed to 1e-11
Changing Tseed to 1e-08
Changing Tseed to 1e-12
Changing Tseed to 1e-07
Changing Tseed to 1e-13
Changing Tseed to 1e-06
Changing Tseed to 1e-14
Changing Tseed to 1e-05
Changing Tseed to 1e-15
Changing Tseed to 0.0001
Changing Tseed to 1e-16
+Changing Tseed to 1e-09
Changing Tseed to 1e-11
Changing Tseed to 1e-08
Changing Tseed to 1e-12
Changing Tseed to 1e-07
Changing Tseed to 1e-13
Changing Tseed to 1e-06
Changing Tseed to 1e-14
Changing Tseed to 1e-05
Changing Tseed to 1e-15
Changing Tseed to 0.0001
Changing Tseed to 1e-16
+Changing Tseed to 1e-09
Changing Tseed to 1e-11
Changing Tseed to 1e-08
Changing Tseed to 1e-12
Changing Tseed to 1e-07
Changing Tseed to 1e-13
Changing Tseed to 1e-06
Changing Tseed to 1e-14
Changing Tseed to 1e-05
Changing Tseed to 1e-15
Changing Tseed to 0.0001
Changing Tseed to 1e-16
+Changing Tseed to 1e-09
Changing Tseed to 1e-11
Changing Tseed to 1e-08
Changing Tseed to 1e-12
Changing Tseed to 1e-07
Changing Tseed to 1e-13
Changing Tseed to 1e-06
Changing Tseed to 1e-14
Changing Tseed to 1e-05
Changing Tseed to 1e-15
Changing Tseed to 0.0001
Changing Tseed to 1e-16
+Changing Tseed to 1e-09
Changing Tseed to 1e-11
Changing Tseed to 1e-08
Changing Tseed to 1e-12
Changing Tseed to 1e-07
Changing Tseed to 1e-13
Changing Tseed to 1e-06
Changing Tseed to 1e-14
Changing Tseed to 1e-05
Changing Tseed to 1e-15
Changing Tseed to 0.0001
Changing Tseed to 1e-16
+Changing Tseed to 1e-09
Changing Tseed to 1e-11
Changing Tseed to 1e-08
Changing Tseed to 1e-12
Changing Tseed to 1e-07
Changing Tseed to 1e-13
Changing Tseed to 1e-06
Changing Tseed to 1e-14
Changing Tseed to 1e-05
Changing Tseed to 1e-15
Changing Tseed to 0.0001
Changing Tseed to 1e-16
+Changing Tseed to 1e-09
Changing Tseed to 1e-11
Changing Tseed to 1e-08
Changing Tseed to 1e-12
Changing Tseed to 1e-07
Changing Tseed to 1e-13
Changing Tseed to 1e-06
Changing Tseed to 1e-14
Changing Tseed to 1e-05
Changing Tseed to 1e-15
Changing Tseed to 0.0001
Changing Tseed to 1e-16
+Changing Tseed to 1e-09
Changing Tseed to 1e-11
Changing Tseed to 1e-08
Changing Tseed to 1e-12
Changing Tseed to 1e-07
Changing Tseed to 1e-13
Changing Tseed to 1e-06
Changing Tseed to 1e-14
Changing Tseed to 1e-05
Changing Tseed to 1e-15
Changing Tseed to 0.0001
Changing Tseed to 1e-16
+Changing Tseed to 1e-09
Changing Tseed to 1e-11
Changing Tseed to 1e-08
Changing Tseed to 1e-12
Changing Tseed to 1e-07
Changing Tseed to 1e-13
Changing Tseed to 1e-06
Changing Tseed to 1e-14
Changing Tseed to 1e-05
Changing Tseed to 1e-15
Changing Tseed to 0.0001
Changing Tseed to 1e-16
+Changing Tseed to 1e-09
Changing Tseed to 1e-11
Changing Tseed to 1e-08
Changing Tseed to 1e-12
Changing Tseed to 1e-07
Changing Tseed to 1e-13
Changing Tseed to 1e-06
Changing Tseed to 1e-14
Changing Tseed to 1e-05
Changing Tseed to 1e-15
Changing Tseed to 0.0001
Changing Tseed to 1e-16
+Changing Tseed to 1e-09
Changing Tseed to 1e-11
Changing Tseed to 1e-08
Changing Tseed to 1e-12
Changing Tseed to 1e-07
Changing Tseed to 1e-13
Changing Tseed to 1e-06
Changing Tseed to 1e-14
Changing Tseed to 1e-05
Changing Tseed to 1e-15
Changing Tseed to 0.0001
Changing Tseed to 1e-16
+Changing Tseed to 1e-09
Changing Tseed to 1e-11
Changing Tseed to 1e-08
Changing Tseed to 1e-12
Changing Tseed to 1e-07
Changing Tseed to 1e-13
Changing Tseed to 1e-06
Changing Tseed to 1e-14
Changing Tseed to 1e-05
Changing Tseed to 1e-15
Changing Tseed to 0.0001
Changing Tseed to 1e-16
+Changing Tseed to 1e-09
Changing Tseed to 1e-11
Changing Tseed to 1e-08
Changing Tseed to 1e-12
Changing Tseed to 1e-07
Changing Tseed to 1e-13
Changing Tseed to 1e-06
Changing Tseed to 1e-14
Changing Tseed to 1e-05
Changing Tseed to 1e-15
Changing Tseed to 0.0001
Changing Tseed to 1e-16
+Changing Tseed to 1e-09
to 1.125e-09
Total elapsed time: 0.316 seconds.

